#
# *******************
# Calendar Parameters
# *******************
 &CAL_NML
# TheCalendar='gregorian',
 TheCalendar='model',
 startdate_1=19920101, 
&
