# Packages
 &PACKAGES
  useGMRedi = .TRUE.,
  useKPP    = .TRUE.,
  useSEAICE = .FALSE.,
  useECCO   = .FALSE.,
 &
